<?xml version="1.0" encoding="UTF-8"?>

<!-- generated on 2026-06-22 10:20:00.688244 by randomTrips.py UNKNOWN
<configuration>
    <net-file value="erlangen.net.xml"/>
    <route-file value="erlangen.rou.xml"/>
    <validate value="True"/>
    <end value="300.0"/>
    <period value="1.5"/>
</configuration>
-->

<!-- generated on 2026-06-22 10:20:00 by Eclipse SUMO duarouter Version 1.18.0
<configuration xmlns:xsi="http://www.w3.org/2001/XMLSchema-instance" xsi:noNamespaceSchemaLocation="http://sumo.dlr.de/xsd/duarouterConfiguration.xsd">

    <input>
        <net-file value="erlangen.net.xml"/>
        <route-files value="trips.trips.xml"/>
    </input>

    <output>
        <output-file value="erlangen.rou.xml"/>
        <alternatives-output value="NUL"/>
    </output>

    <time>
        <begin value="0"/>
        <end value="300.0"/>
    </time>

    <report>
        <no-warnings value="true"/>
        <ignore-errors value="true"/>
        <no-step-log value="true"/>
    </report>

</configuration>
-->

<routes xmlns:xsi="http://www.w3.org/2001/XMLSchema-instance" xsi:noNamespaceSchemaLocation="http://sumo.dlr.de/xsd/routes_file.xsd">
    <vehicle id="0" depart="0.00">
        <route edges="31241838#1 -31241838#1 -31241838#0 -31255203#1 -31255203#0 -4006702#0 4319352#1 44069041#0 44069041#1 4400949 31982182#0 4047241 4797872 4797871 -15259223"/>
    </vehicle>
    <vehicle id="1" depart="1.50">
        <route edges="-4006674#1 4006674#1 4006674#2 4006674#3 4006674#4 4006687 32270595 -32302591#5"/>
    </vehicle>
    <vehicle id="2" depart="3.00">
        <route edges="37591481 -113939241 113939244#0 -25398494#0 -31401017#2 31401017#2"/>
    </vehicle>
    <vehicle id="3" depart="4.50">
        <route edges="4047378 4006724#1 4006724#2 -3998612#1 -3998612#0 30357194 25472299 30350448 30350449 25472079 30405352 30350445 -33174302#1 -33174302#0 -32270595 8402997 8402998#1 8402998#2 29900564#1 29900564#2 -29900564#2"/>
    </vehicle>
    <vehicle id="4" depart="6.00">
        <route edges="-94344940#0 28768072 -28613737 4006702#1 4900043 4900041#1 -23350929"/>
    </vehicle>
    <vehicle id="5" depart="7.50">
        <route edges="-35842306#1 35842306#1 4047446#0 4047446#1 25472079 30405352 30350445 -33174302#1 -33174302#0 -32270595 -29900561#1 -29900561#0 -8403001 -4006674#4 23605600#1 23605600#2"/>
    </vehicle>
    <vehicle id="6" depart="9.00">
        <route edges="-23341293 -10425128#0 -4006693#2 -4006693#1 -4006693#0 -31401017#2 -31401017#1 -31401017#0 -29900567 -31401018 -4047532 -32270592#1"/>
    </vehicle>
    <vehicle id="7" depart="10.50">
        <route edges="31241851#2 -31255203#0 28613737 94344941 28768072"/>
    </vehicle>
    <vehicle id="8" depart="12.00">
        <route edges="-37591481 37591481 -113939241 113939244#0 113939244#1 113939244#2 -126606716 23339459 30405358#1 85355912 85355911#0 85355911#1 30405356 25472079 30405352 30350445"/>
    </vehicle>
    <vehicle id="9" depart="13.50">
        <route edges="4006688#0 -4006688#0 31401017#1 31401017#2 4006693#0 4006693#1 4006693#2 10425128#0 -10425128#0"/>
    </vehicle>
    <vehicle id="10" depart="15.00">
        <route edges="4006684 -32302591#2 -32302591#1 -32302591#0 4006672 32270593 32270592#0"/>
    </vehicle>
    <vehicle id="11" depart="16.50">
        <route edges="-4006705#1 4006703#1 28269598 -4006702#2 -4006702#1 31255203#0 31255203#1 31241838#0 -31241853#1 -31241853#0"/>
    </vehicle>
    <vehicle id="12" depart="18.00">
        <route edges="5445204#2 5445204#3 23570844#2 10419402 4006693#2 4006693#3 4006693#4 -4006693#4"/>
    </vehicle>
    <vehicle id="13" depart="19.50">
        <route edges="-29900567 29900567 31401017#0 4006688#0 4006688#1 4006688#2 4006688#3 4006688#4 29900561#0 29900561#1 8402997 -8402998#0 -29900565#2 -29900565#1 -29900565#0"/>
    </vehicle>
    <vehicle id="14" depart="21.00">
        <route edges="4006702#1 -4006702#1 -4006702#0 -3013106#2 3998615#0 3998615#1 3998643#2 30350450#2"/>
    </vehicle>
    <vehicle id="15" depart="22.50">
        <route edges="4006687 32270595 33174302#0 33174302#1 4686970#0 4686970#1 122161381 30350448 30350449 4047309 30751813 -35842306#1 -35842306#0 35842306#0"/>
    </vehicle>
    <vehicle id="16" depart="24.00">
        <route edges="28613727#1 -94344940#0 28768072 -28613737 -4006702#0 4319352#1 44069041#0 44069041#1 25472079 30405352 30350445 -33174302#1 -33174302#0 -32270595 -29900561#1 -29900561#0 29900564#0 8402998#3"/>
    </vehicle>
    <vehicle id="17" depart="25.50">
        <route edges="-4690348 4900739#2 4900741 35842306#0 35842306#1 4047446#0 4047446#1 25472079 30405352 30350445 -33174302#1 -33174302#0 -32270595 -29900561#1 -29900561#0 29900564#0"/>
    </vehicle>
    <vehicle id="18" depart="27.00">
        <route edges="4006693#0 -23605595 -8403007 -29900564#1 -8402998#2 -8402998#1 -8402997 32270595 33174302#0 33174302#1 4686970#0 4686970#1 122161381 30350448 8364476 30350450#0 30350450#1 30350450#2 4006702#0 31255203#0 31255203#1 31241838#0 31241838#1 -31241816#0 31241816#0"/>
    </vehicle>
    <vehicle id="19" depart="28.50">
        <route edges="4006705#2 -4006705#2 -4006705#1 4006703#1 28269598 -4006702#2 -4006702#1 -4006702#0 -3013106#2 -3013106#1 -3013106#0 3013106#0"/>
    </vehicle>
    <vehicle id="20" depart="30.00">
        <route edges="32271499 41973977 -31353573#1 4006673 23605600#0 -23605600#0"/>
    </vehicle>
    <vehicle id="21" depart="31.50">
        <route edges="-3998612#1 -3998612#0 3998613#0 3998613#1 3998613#2 -31353573#1 4006673 -32302591#4 -32302591#3 -4006684 -4006674#2"/>
    </vehicle>
    <vehicle id="22" depart="33.00">
        <route edges="-29900564#5 -29900564#4 -29900564#3 -29900564#2 -29900564#1 -8402998#2 -8402998#1 -8402997 32270595 33174302#0 33174302#1 4686970#0 4686970#1 122161381 30350448 30350449 4047309 30751813 -35842306#1 -35842306#0"/>
    </vehicle>
    <vehicle id="23" depart="34.50">
        <route edges="-3013107 3013107 3013106#1 3998615#0 3998615#1 3998615#2 3998615#3 3998645#2 -3998645#2"/>
    </vehicle>
    <vehicle id="24" depart="36.00">
        <route edges="31241835#1 31241834#0 31241848 31241851#0 31241851#1 31241851#2 -31255203#0 -4006702#0 -3013106#2 -3013106#1 -3013106#0 -3998612#2 -4006724#2 4872369 -4006725#0"/>
    </vehicle>
    <vehicle id="25" depart="37.50">
        <route edges="-4099270#1 -4099270#0 4006726#2 -3998645#0 -3998612#0 -32282774"/>
    </vehicle>
    <vehicle id="26" depart="39.00">
        <route edges="-4006668 4006668 23339459 30405358#1 85355912 85355911#0 85355911#1 30405356 5931612 30350450#0 -3998645#2 -3998645#1 -3998645#0 3998612#1 -4006724#2 4872369"/>
    </vehicle>
    <vehicle id="27" depart="40.50">
        <route edges="31241851#2 -31255203#0 -4006702#0 4319352#1 44069041#0 44069041#1 4400949 31982182#0 4047241 4797872 4797871 4006668 23339459 30405358#1 85355912 85355911#0 85355911#1 30405356"/>
    </vehicle>
    <vehicle id="28" depart="42.00">
        <route edges="-31401018 31401018 29900567 31401017#0 4006688#0 4006688#1 4006688#2 4006688#3 4006688#4 29900561#0 29900561#1 32270595 33174302#0 33174302#1 4686970#0 4686970#1 122161381 30350448 30350449 4047309 30751813 -35842306#1 -35842306#0 35842306#0"/>
    </vehicle>
    <vehicle id="29" depart="43.50">
        <route edges="-31401017#0 31401017#0 4006688#0 4006688#1 4006688#2 4006688#3 4006688#4 29900561#0 29900561#1 32270595 33174302#0 33174302#1 4686970#0 25472257 -30357194 3998612#0 3998612#1 -4006724#2 -4006724#1 -4047378"/>
    </vehicle>
    <vehicle id="30" depart="45.00">
        <route edges="85355912 85355911#0 85355911#1 30405356 5931612 30350450#0 30350450#1 30350450#2 4006702#0 31255203#0 -31241851#2 -31241851#1 -31241851#0 31241851#0"/>
    </vehicle>
    <vehicle id="31" depart="46.50">
        <route edges="29900564#2 -29900564#2 -29900564#1 -8402998#2 -8402998#1 -8402997 32270595 33174302#0 33174302#1 4686970#0 4686970#1 122161381 30350448 8364476 30350450#0 30350450#1 30350450#2 4006702#0 4006702#1 4006702#2 -28269598 -4006703#1 4006705#1 4006705#2 31720632#0 31720633"/>
    </vehicle>
    <vehicle id="32" depart="48.00">
        <route edges="4006694 4006693#4 4006690 29900565#0 29900565#1 29900565#2 29900565#3 33174302#0 33174302#1 4686970#0 4686970#1 122161381 30350448 8364476 30350450#0 -3998645#2 3998645#2"/>
    </vehicle>
    <vehicle id="33" depart="49.50">
        <route edges="-3998612#1 3998612#1 3998612#2 3013106#0 3013106#1 3013106#2 4006702#0 4006702#1 4900043 4900041#1 4900041#2 -23350930"/>
    </vehicle>
    <vehicle id="34" depart="51.00">
        <route edges="-4006693#0 -31401017#2 -31401017#1 4006688#0 4006688#1 4006688#2 4006688#3 4006688#4 29900561#0 29900561#1 32270595 33174302#0 33174302#1 4686970#0 4686970#1 122161381 30350448 8364476 30350450#0 30350450#1 -3998643#2 -3998643#1"/>
    </vehicle>
    <vehicle id="35" depart="52.50">
        <route edges="-33174302#0 33174302#0 33174302#1 4686970#0 4686970#1 122161381 30350448 30350449 4047309 30751813 -35842306#1 -35842306#0 -4900741 -4900739#2 -4900739#1 4900739#1"/>
    </vehicle>
    <vehicle id="36" depart="54.00">
        <route edges="4006726#0 4006726#1 4006726#2 -3998645#0 -3998612#0 30357194 25472299 30350448 30350449 25472079 30405352 30350445 -33174302#1 -33174302#0 -32270595 -29900561#1 -29900561#0 -4006688#4 -4006688#3 -4006688#2"/>
    </vehicle>
    <vehicle id="37" depart="55.50">
        <route edges="31241853#2 31241851#2 -31255203#0 -4006702#0 -3013106#2 -3013106#1 -3013106#0 -3998612#2 -4006724#2 4872369 -4872369"/>
    </vehicle>
    <vehicle id="39" depart="58.50">
        <route edges="-3998653 -3998613#0 3998612#0 3998612#1 3998612#2 -3998612#2"/>
    </vehicle>
    <vehicle id="40" depart="60.00">
        <route edges="29900564#4 -29900564#4 -29900564#3 -29900564#2 -29900564#1 -8402998#2 -8402998#1 -8402997 32270595 33174302#0 33174302#1 4686970#0 4686970#1 122161381 30350448 8364476 30350450#0 -3998645#2 -3998615#3"/>
    </vehicle>
    <vehicle id="41" depart="61.50">
        <route edges="3013107 3013106#1 3998615#0 4006726#0 4006726#1 4099270#0"/>
    </vehicle>
    <vehicle id="42" depart="63.00">
        <route edges="-5558 4006690 29900565#0 29900565#1 29900565#2 29900565#3 -32302591#5 -32302591#4 -32302591#3"/>
    </vehicle>
    <vehicle id="43" depart="64.50">
        <route edges="94344941 28768072 -28613737 -4006702#0 4319352#1 44069041#0 44069041#1 25472079 30405352 30350445 -33174302#1 -33174302#0 -32270595 -29900561#1 -29900561#0 -4006688#4 -4006688#3 -4006688#2 -4006688#1 -4006688#0 31401017#1 31401017#2 25398494#0"/>
    </vehicle>
    <vehicle id="44" depart="66.00">
        <route edges="-29900567 -23605600#2 -23605600#1"/>
    </vehicle>
    <vehicle id="45" depart="67.50">
        <route edges="-31241816#0 31241816#0 31241816#1 -31241848 31241834#1"/>
    </vehicle>
    <vehicle id="46" depart="69.00">
        <route edges="4006674#2 4006674#3 4006674#4 4006687 8402997 -8402998#0"/>
    </vehicle>
    <vehicle id="47" depart="70.50">
        <route edges="-29900561#0 -4006688#4 -4006688#3 -4006688#2 -4006688#1 -4006688#0 -31401017#0 -29900567 -31401018 -4047532"/>
    </vehicle>
    <vehicle id="48" depart="72.00">
        <route edges="94344941 28768072 -28613737 4006702#1 4006702#2 -28269598 28269598"/>
    </vehicle>
    <vehicle id="49" depart="73.50">
        <route edges="8402998#1 -8402998#1 -8402997 32270595 33174302#0 33174302#1 4686970#0 4686970#1 122161381 30350448 8364476 30350450#0 30350450#1 30350450#2 4006702#0 4006702#1 4006702#2 -28269598 -4006703#1 4006705#1"/>
    </vehicle>
    <vehicle id="50" depart="75.00">
        <route edges="-10425131 4006688#4 29900561#0 29900561#1 32270595 -32302591#5 32302591#5"/>
    </vehicle>
    <vehicle id="51" depart="76.50">
        <route edges="31401017#2 -31401017#2 -31401017#1 4006688#0 4006688#1 4006688#2 4006688#3 4006688#4 29900561#0 29900561#1 32270595 33174302#0 33174302#1 4686970#0 4686970#1 122161381 30350448 8364476 30350450#0 30350450#1 30350450#2 4006702#0 28613737 94344941 94344940#0 -28613727#1 28613727#1"/>
    </vehicle>
    <vehicle id="52" depart="78.00">
        <route edges="-4006668 4006668 23339459 30405358#1 85355912 85355911#0 85355911#1 30405356 5931612 30350450#0 30350450#1 30350450#2 4006702#0 31255203#0 -31241851#2 -31241851#1 31241851#1"/>
    </vehicle>
    <vehicle id="53" depart="79.50">
        <route edges="-31241816#1 -31241838#1 -31241838#0 -31255203#1 -31255203#0 -4006702#0 4319352#1 44069041#0 44069041#1 25472079 30405352 30350445 -33174302#1 -33174302#0 -32270595 8402997 8402998#1 8402998#2 29900564#1 8403007 -8403007"/>
    </vehicle>
    <vehicle id="54" depart="81.00">
        <route edges="113939242#2 113939244#0 113939244#1 5445204#1 5445204#2 5445204#3"/>
    </vehicle>
    <vehicle id="55" depart="82.50">
        <route edges="4006726#0 4006726#1 4006726#2 3998645#1 -3998615#3"/>
    </vehicle>
    <vehicle id="56" depart="84.00">
        <route edges="23605600#1 23605600#2 29900567 31401017#0 -31401017#0"/>
    </vehicle>
    <vehicle id="57" depart="85.50">
        <route edges="4319352#1 44069041#0 44069041#1 5931612 30350450#0 -3998645#2 -3998645#1 -3998645#0 -4006725#1 4006725#1"/>
    </vehicle>
    <vehicle id="58" depart="87.00">
        <route edges="-4006688#0 4006688#0 4006688#1 4006688#2 4006688#3 4006688#4 29900561#0 29900561#1 32270595 33174302#0 33174302#1 4686970#0 4686970#1 122161381 30350448 8364476 30350450#0 30350450#1 30350450#2 4006702#0 31255203#0 -31241851#2 -31241851#1 -31241851#0 31241851#0"/>
    </vehicle>
    <vehicle id="59" depart="88.50">
        <route edges="30405356 5931612 30350450#0 30350450#1 30350450#2 4006702#0 31255203#0 -31241851#2"/>
    </vehicle>
    <vehicle id="60" depart="90.00">
        <route edges="3998615#3 3998645#2 30350450#1 30350450#2 4006702#0 28613737"/>
    </vehicle>
    <vehicle id="61" depart="91.50">
        <route edges="4006668 23339459 30405358#1 85355912 85355911#0 85355911#1 30405356 5931612 30350450#0 30350450#1 30350450#2 4006702#0 4006702#1 4006702#2 -28269598 28269598"/>
    </vehicle>
    <vehicle id="62" depart="93.00">
        <route edges="-10419402 10419402 -4006693#1 -23605595 -8403007 29900564#2 -4006691"/>
    </vehicle>
    <vehicle id="63" depart="94.50">
        <route edges="-10712013 4006688#3 4006688#4 29900561#0 29900561#1 32270595 33174302#0 33174302#1 4686970#0 4686970#1 122161381 30350448 30350449 4047309 30751813 -35842306#1 -35842306#0 -4900741 -4900739#2 4690348"/>
    </vehicle>
    <vehicle id="64" depart="96.00">
        <route edges="4006726#1 4006726#2 -3998645#0 -3998612#0 30357194 25472299 30350448 30350449 25472079 30405352 30350445 -33174302#1 -33174302#0 -29900565#3 -29900565#2 -29900565#1 4006691"/>
    </vehicle>
    <vehicle id="65" depart="97.50">
        <route edges="-4006688#3 4006688#3 4006688#4 29900561#0 29900561#1 32270595 33174302#0 33174302#1 4686970#0 4686970#1 122161381 30350448 8364476 30350450#0 30350450#1 30350450#2 4006702#0 4006702#1 4006702#2 -28269598 -4006703#1 4006705#1 -25210699"/>
    </vehicle>
    <vehicle id="66" depart="99.00">
        <route edges="4006726#1 4006726#2 -3998645#0 -3998612#0 30357194 25472299 30350448 30350449 4047309 30751813 -35842306#1 -35842306#0 -4900741 4900741"/>
    </vehicle>
    <vehicle id="67" depart="100.50">
        <route edges="-29900565#2 29900565#2 29900565#3 33174302#0 33174302#1 4686970#0 4686970#1 122161381 30350448 30350449 4400949 31982182#0 4047241 4797872 4797871 4006668 126606716"/>
    </vehicle>
    <vehicle id="68" depart="102.00">
        <route edges="-29900564#1 -8402998#2 -8402998#1 -8402997 32270595 33174302#0 33174302#1 4686970#0 4686970#1 122161381 30350448 8364476 30350450#0 -3998645#2 -3998615#3 3998615#3"/>
    </vehicle>
    <vehicle id="69" depart="103.50">
        <route edges="3998643#1 3998643#2 30350450#2 4006702#0 31255203#0 -31241851#2 -31241851#1 -31241851#0 31241816#3 -31241816#3"/>
    </vehicle>
    <vehicle id="70" depart="105.00">
        <route edges="19796637 122161381 30350448 30350449 25472079 30405352 30350445 -33174302#1 -33174302#0 -32270595 -29900561#1 29900561#1"/>
    </vehicle>
    <vehicle id="71" depart="106.50">
        <route edges="-3998653 -3998613#0 3998612#0 -4006725#1 4006725#1"/>
    </vehicle>
    <vehicle id="72" depart="108.00">
        <route edges="-94344940#2 -94344940#0 28768072 -28613737 -4006702#0 4319352#1 44069041#0 44069041#1 25472079 30405352 30350445 -33174302#1 -33174302#0 -32302591#5 -32302591#4 -32302591#3 -32302591#2 -32302591#1 -32302591#0"/>
    </vehicle>
    <vehicle id="73" depart="109.50">
        <route edges="28613734 28613727#0 28613727#1 -94344940#0 28768072 -28613737 -4006702#0 4319352#1 44069041#0 25472134 30751813 -35842306#1 -35842306#0 35842306#0"/>
    </vehicle>
    <vehicle id="74" depart="111.00">
        <route edges="-32302591#3 32302591#3 32302591#4 32302591#5 -32270595 -29900561#1 -29900561#0 -4006688#4 -4006688#3 -4006688#2 -4006688#1"/>
    </vehicle>
    <vehicle id="75" depart="112.50">
        <route edges="94344941 28768072 -28613737 31255203#0 31255203#1 31241838#0 31241853#2"/>
    </vehicle>
    <vehicle id="76" depart="114.00">
        <route edges="10425130 4006688#4 29900561#0 29900561#1 32270595 33174302#0 33174302#1 4686970#0 4686970#1 122161381 30350448 30350449 4047309 30751813 4047446#0 25472129"/>
    </vehicle>
    <vehicle id="77" depart="115.50">
        <route edges="-31241835#1 -31241816#3 31241851#0 31241851#1 31241851#2 -31255203#0 -4006702#0 4319352#1 44069041#0 44069041#1 25472079 30405352 30350445 -33174302#1 -33174302#0 -32302591#5"/>
    </vehicle>
    <vehicle id="78" depart="117.00">
        <route edges="-4006703#1 4006703#1 28269598 -4006702#2 -4006702#1 -4006702#0 -3013106#2 -3013106#1 -3013106#0 3013109"/>
    </vehicle>
    <vehicle id="79" depart="118.50">
        <route edges="-3998612#2 -3998612#1 -3998612#0 3998613#0 3998613#1 3998613#2 -31353573#1 4006673 -32302591#4"/>
    </vehicle>
    <vehicle id="80" depart="120.00">
        <route edges="-29900564#2 -29900564#1 -8402998#2 -8402998#1 -8402997 32270595 33174302#0 33174302#1 4686970#0 4686970#1 122161381 30350448 8364476 30350450#0 30350450#1 30350450#2 4006702#0 31255203#0 31255203#1 31241838#0"/>
    </vehicle>
    <vehicle id="81" depart="121.50">
        <route edges="-3998612#1 -3998612#0 3998613#0 3998613#1 3998613#2 -41973977 41973977"/>
    </vehicle>
    <vehicle id="82" depart="123.00">
        <route edges="4006705#1 -4006705#1 4006703#1 28269598 -4006702#2 -4006702#1 28613737 94344941 94344940#0 -28613727#1"/>
    </vehicle>
    <vehicle id="83" depart="124.50">
        <route edges="-3998613#2 3998613#2 -31353573#1 31353573#1"/>
    </vehicle>
    <vehicle id="84" depart="126.00">
        <route edges="-33174302#1 33174302#1 4686970#0 4686970#1 122161381 30350448 8364476 30350450#0 30350450#1 30350450#2 4006702#0 31255203#0 31255203#1 31241838#0 -31241853#1 -31241855#1 -31241855#0 -31241834#1"/>
    </vehicle>
    <vehicle id="85" depart="127.50">
        <route edges="4797872 4797871 4006668 23339459 30405358#1 85355912 85355911#0 85355911#1 30405356 25472079 30405352 30350445 -33174302#1 -33174302#0 -29900565#3 -29900565#2 29900565#2"/>
    </vehicle>
    <vehicle id="86" depart="129.00">
        <route edges="15259223 4006668 23339459 30405358#1 85355912 85355911#0 85355911#1 30405356 25472079 30405352 30350445 -33174302#1 -33174302#0 -32302591#5 -32302591#4 -32302591#3 -32302591#2 -32302591#1 -32302591#0 4006672"/>
    </vehicle>
    <vehicle id="87" depart="130.50">
        <route edges="4006687 32270595 33174302#0 33174302#1 4686970#0 4686970#1 122161381 30350448 8364476 30350450#0 30350450#1 30350450#2 4006702#0 4006702#1 4006702#2 -28269598 -4006703#1 4006705#1 4006705#2 31720632#0 -31720632#0"/>
    </vehicle>
    <vehicle id="88" depart="132.00">
        <route edges="-3013106#1 3013106#1 3013106#2 4319352#1 44069041#0 44069041#1 25472079 30405352 30350445 -33174302#1 -33174302#0 -32270595 -29900561#1 -29900561#0 -8403001"/>
    </vehicle>
    <vehicle id="89" depart="133.50">
        <route edges="-94344940#2 -94344940#0 28768072 -28613737 -4006702#0 4319352#1 44069041#0 44069041#1 4400949 31982182#0 4047241 4797872 4797871 4006668 126606716 113939242#0 113939242#1"/>
    </vehicle>
    <vehicle id="90" depart="135.00">
        <route edges="33174302#1 -33174302#1 -33174302#0 -32270595 -29900561#1 -29900561#0 -4006688#4 -4006688#3 -4006688#2 -4006688#1 -4006688#0 31401017#1"/>
    </vehicle>
    <vehicle id="91" depart="136.50">
        <route edges="85355911#0 85355911#1 30405356 25472079 30405352 30350445 -33174302#1 -33174302#0 -29900565#3 -29900565#2 -29900565#1"/>
    </vehicle>
    <vehicle id="92" depart="138.00">
        <route edges="-67076129 -94344940#0 28768072 -28613737 -4006702#0"/>
    </vehicle>
    <vehicle id="93" depart="139.50">
        <route edges="4006705#2 -4006705#2 -4006705#1 4006703#1 28269598 -4006702#2 -4006702#1 -4006702#0 -3013106#2 -3013106#1 -3013106#0 -3998612#2 -3998612#1 -3998612#0 3998613#0 -3998613#0"/>
    </vehicle>
    <vehicle id="94" depart="141.00">
        <route edges="-32270593 4006674#0 4006674#1 4006674#2 4006674#3 4006674#4 8403001 29900564#0 29900564#1 8403007 -23341293 10425128#1"/>
    </vehicle>
    <vehicle id="95" depart="142.50">
        <route edges="-94344940#0 28768072 -28613737 -4006702#0 4319352#1 44069041#0 44069041#1 5931612 30350450#0 -3998645#2"/>
    </vehicle>
    <vehicle id="96" depart="144.00">
        <route edges="-3998643#0 3998612#2 3013106#0 3013106#1 3013106#2 4319352#1 44069041#0 44069041#1"/>
    </vehicle>
    <vehicle id="97" depart="145.50">
        <route edges="10573414#1 3013106#0 3013106#1 3013106#2 4006702#0 4006702#1 4006702#2 -28269598 -4006703#1 4006705#1"/>
    </vehicle>
    <vehicle id="98" depart="147.00">
        <route edges="29900564#0 -29900564#0 -4006688#4 -4006688#3 -4006688#2 -4006688#1 -4006688#0 -31401017#0 -29900567 -23605600#2"/>
    </vehicle>
    <vehicle id="99" depart="148.50">
        <route edges="9643180 8402998#2 29900564#1 8403007 23605595 -4006693#0 4006693#0"/>
    </vehicle>
    <vehicle id="100" depart="150.00">
        <route edges="8402998#0 -8402997 32270595 33174302#0 33174302#1 4686970#0"/>
    </vehicle>
    <vehicle id="101" depart="151.50">
        <route edges="4006702#2 -4006702#2 -4006702#1 31255203#0 -31255203#0"/>
    </vehicle>
    <vehicle id="102" depart="153.00">
        <route edges="23350930 4900041#3 4900041#0 -4900043 -4006702#1 -4006702#0 4319352#1 44069041#0 44069041#1 25472079 30405352 30350445 -33174302#1 -33174302#0 -32302591#5 -32302591#4 -32302591#3 -32302591#2 -32302591#1"/>
    </vehicle>
    <vehicle id="103" depart="154.50">
        <route edges="-67076129 -94344940#0 28768072 -28613737 4006702#1 4006702#2 -28269598 -4006703#1 4006705#1 -25210699"/>
    </vehicle>
    <vehicle id="104" depart="156.00">
        <route edges="-4872369 4872369 4006725#1 -3998612#0 30357194 25472299 30350448 30350449 4400949 31982182#0 4047241 4797872 4797871 4006668 23339459 30405358#1 85355912 85355911#0 85355911#1"/>
    </vehicle>
    <vehicle id="105" depart="157.50">
        <route edges="-3998653 3998613#1 3998613#2 -31353573#1 4006673 -32302591#4 -32302591#3 -32302591#2 -32302591#1 -32302591#0 4006672"/>
    </vehicle>
    <vehicle id="106" depart="159.00">
        <route edges="113939244#0 -25398494#0 4006693#0 -23605595 -8403007 -29900564#1 -8402998#2 -8402998#1"/>
    </vehicle>
    <vehicle id="107" depart="160.50">
        <route edges="5445204#2 -5445204#2 -5445204#1 113939244#2 -126606716 23339459 30405358#1 85355912 85355911#0 85355911#1 30405356 5931612 30350450#0 30350450#1 30350450#2 4006702#0 28613737 94344941"/>
    </vehicle>
    <vehicle id="108" depart="162.00">
        <route edges="29900564#2 -29900564#2 -29900564#1 -8402998#2 -8402998#1 -8402997 32270595 -32302591#5 -32302591#4 32302591#4"/>
    </vehicle>
    <vehicle id="109" depart="163.50">
        <route edges="-31270441 31777493#1 35842306#0 35842306#1 4047446#0 4047446#1 25472079 30405352 30350445 -33174302#1 -33174302#0 -32302591#5 -32302591#4 -32302591#3 -32302591#2 -32302591#1 -32302591#0 4006672 32270593 32270592#0 -4006675"/>
    </vehicle>
    <vehicle id="110" depart="165.00">
        <route edges="8402998#0 -8402997 32270595 33174302#0 33174302#1 4686970#0 25472257 -30357194 3998612#0 3998612#1 3998612#2 3013106#0"/>
    </vehicle>
    <vehicle id="111" depart="166.50">
        <route edges="28613737 -28613737 -4006702#0 -3013106#2 -3013106#1 -3013106#0 -3998612#2 -3998612#1 -3998612#0 3998613#0"/>
    </vehicle>
    <vehicle id="112" depart="168.00">
        <route edges="-28613737 -4006702#0 -3013106#2 3013106#2"/>
    </vehicle>
    <vehicle id="113" depart="169.50">
        <route edges="23605600#2 29900567 31401017#0 4006688#0 4006688#1 4006688#2 4006688#3 4006688#4 29900561#0 29900561#1 32270595 33174302#0 33174302#1 4686970#0 4686970#1 122161381 30350448 8364476 30350450#0 30350450#1 30350450#2 4006702#0"/>
    </vehicle>
    <vehicle id="114" depart="171.00">
        <route edges="-31353573#0 4686970#0 4686970#1 122161381 30350448 8364476 30350450#0 30350450#1 30350450#2 4006702#0 28613737 94344941 94344940#0 67076129"/>
    </vehicle>
    <vehicle id="115" depart="172.50">
        <route edges="-29900564#5 -29900564#4 -29900564#3 -29900564#2 -29900564#1 -29900564#0 -4006688#4 -4006688#3 -4006688#2 -4006688#1 -4006688#0 -31401017#0 -29900567 -31401018"/>
    </vehicle>
    <vehicle id="116" depart="174.00">
        <route edges="30350449 25472079 30405352 30350445 -33174302#1 -33174302#0 -32270595 -29900561#1 -29900561#0 -4006688#4 -4006688#3 -4006688#2 -4006688#1 -4006688#0 31401017#1 31401017#2"/>
    </vehicle>
    <vehicle id="117" depart="175.50">
        <route edges="-3998613#1 -3998613#0 30357194 -30357194"/>
    </vehicle>
    <vehicle id="118" depart="177.00">
        <route edges="4047378 -4047378 10573414#1 -3998612#2"/>
    </vehicle>
    <vehicle id="119" depart="178.50">
        <route edges="30350449 5931612 30350450#0 30350450#1 30350450#2 4006702#0 31255203#0 31255203#1 31241838#0 31241838#1 31241816#1"/>
    </vehicle>
    <vehicle id="120" depart="180.00">
        <route edges="-8403007 -29900564#1 -8402998#2 -8402998#1 -8402997 32270595 33174302#0 33174302#1 4686970#0 4686970#1 122161381 30350448 8364476 30350450#0 30350450#1 30350450#2 -3013106#2 3013106#2"/>
    </vehicle>
    <vehicle id="121" depart="181.50">
        <route edges="25472134 30751813 4047446#0 4047446#1 4400949 31982182#0 4047241 4797872"/>
    </vehicle>
    <vehicle id="122" depart="183.00">
        <route edges="-32302591#4 -32302591#3 32302591#3"/>
    </vehicle>
    <vehicle id="123" depart="184.50">
        <route edges="-3998613#2 -3998613#1 -3998613#0 3998612#0 -4006725#1 -4872369"/>
    </vehicle>
    <vehicle id="124" depart="186.00">
        <route edges="31353573#0 4006673 -32302591#4 -32302591#3 -32302591#2 -32302591#1 4006682 -4006682"/>
    </vehicle>
    <vehicle id="125" depart="187.50">
        <route edges="-4006693#0 -31401017#2 -31401017#1 4006688#0 4006688#1 4006688#2 4006688#3 4006688#4 29900561#0 29900561#1 32270595 33174302#0 33174302#1 31353573#0 31353573#1 -3998613#2 3998613#2"/>
    </vehicle>
    <vehicle id="126" depart="189.00">
        <route edges="-29900564#2 -29900564#1 -29900564#0 -4006688#4 -4006688#3 -4006688#2 -4006688#1 10712011"/>
    </vehicle>
    <vehicle id="127" depart="190.50">
        <route edges="9643180 -8402998#1 -8402997 32270595 33174302#0 33174302#1 4686970#0 4686970#1 122161381 30350448 8364476 30350450#0 30350450#1 30350450#2 4006702#0 28613737 94344941"/>
    </vehicle>
    <vehicle id="128" depart="192.00">
        <route edges="-29900564#2 -29900564#1 -8402998#2 -8402998#1 -8402997 32270595 -32302591#5 -32302591#4 -32302591#3 -32302591#2 -32302591#1"/>
    </vehicle>
    <vehicle id="129" depart="193.50">
        <route edges="-3998653 -3998613#0 30357194 25472299 30350448 30350449 4400949 31982182#0 4047241 4797872 4797871"/>
    </vehicle>
    <vehicle id="130" depart="195.00">
        <route edges="4006726#2"/>
    </vehicle>
    <vehicle id="131" depart="196.50">
        <route edges="-4099270#1 -3998615#2 3998643#2 30350450#2 4006702#0 31255203#0 31255203#1 31241838#0 -31241853#1"/>
    </vehicle>
    <vehicle id="132" depart="198.00">
        <route edges="4006693#2 10425128#0 23341293 -8403007 -29900564#1 -29900564#0 -8403001 -4006674#4 -4006674#3 -4006674#2 -4006674#1 -4006674#0 32270593"/>
    </vehicle>
    <vehicle id="133" depart="199.50">
        <route edges="30405358#0 30405358#1 85355912"/>
    </vehicle>
    <vehicle id="134" depart="201.00">
        <route edges="31241853#1 -31241838#0 -31255203#1 -31255203#0 -4006702#0 4319352#1 44069041#0 44069041#1 25472079 30405352 30350445 -33174302#1 -33174302#0 -32270595 8402997 8402998#1 8402998#2 29900564#1 29900564#2 29900564#3 -10425128#1"/>
    </vehicle>
    <vehicle id="135" depart="202.50">
        <route edges="4006688#3 4006688#4 -8403001 -4006674#4 -4006674#3 -4006674#2 -4006674#1 -4006682"/>
    </vehicle>
    <vehicle id="136" depart="204.00">
        <route edges="31255203#0 -31255203#0 4006702#1 4900043"/>
    </vehicle>
    <vehicle id="137" depart="205.50">
        <route edges="-31241851#1 31241851#1 31241851#2 -31255203#0 -4006702#0 -3013106#2 -3013106#1 -3013107"/>
    </vehicle>
    <vehicle id="138" depart="207.00">
        <route edges="-30357194 3998613#0 3998613#1 3998613#2 -31353573#1 -31353573#0 -33174302#1 -33174302#0 -32270595 8402997 8402998#1 8402998#2 29900564#1"/>
    </vehicle>
    <vehicle id="139" depart="208.50">
        <route edges="-4006674#0 -4006672 32302591#0 32302591#1 32302591#2 32302591#3 32302591#4 32302591#5 33174302#0 33174302#1 4686970#0 25472257 -30357194 30357194"/>
    </vehicle>
    <vehicle id="140" depart="210.00">
        <route edges="32302591#3 32302591#4 32302591#5 -32270595"/>