<?xml version="1.0" encoding="UTF-8"?>

<!-- generated on 2026-06-22 10:20:00.767559 by randomTrips.py UNKNOWN
<configuration>
    <net-file value="erlangen.net.xml"/>
    <route-file value="erlangen.rou.xml"/>
    <validate value="True"/>
    <end value="300.0"/>
    <period value="1.5"/>
</configuration>
-->

<!-- generated on 2026-06-22 10:20:00 by Eclipse SUMO duarouter Version 1.18.0
<configuration xmlns:xsi="http://www.w3.org/2001/XMLSchema-instance" xsi:noNamespaceSchemaLocation="http://sumo.dlr.de/xsd/duarouterConfiguration.xsd">

    <input>
        <net-file value="erlangen.net.xml"/>
        <route-files value="trips.trips.xml"/>
    </input>

    <output>
        <output-file value="trips.trips.xml.tmp"/>
        <alternatives-output value="NUL"/>
        <write-trips value="true"/>
    </output>

    <time>
        <begin value="0"/>
        <end value="300.0"/>
    </time>

    <report>
        <no-warnings value="true"/>
        <ignore-errors value="true"/>
        <no-step-log value="true"/>
    </report>

</configuration>
-->

<routes xmlns:xsi="http://www.w3.org/2001/XMLSchema-instance" xsi:noNamespaceSchemaLocation="http://sumo.dlr.de/xsd/routes_file.xsd">
    <trip id="0" depart="0.00" from="31241838#1" to="-15259223"/>
    <trip id="1" depart="1.50" from="-4006674#1" to="-32302591#5"/>
    <trip id="2" depart="3.00" from="37591481" to="31401017#2"/>
    <trip id="3" depart="4.50" from="4047378" to="-29900564#2"/>
    <trip id="4" depart="6.00" from="-94344940#0" to="-23350929"/>
    <trip id="5" depart="7.50" from="-35842306#1" to="23605600#2"/>
    <trip id="6" depart="9.00" from="-23341293" to="-32270592#1"/>
    <trip id="7" depart="10.50" from="31241851#2" to="28768072"/>
    <trip id="8" depart="12.00" from="-37591481" to="30350445"/>
    <trip id="9" depart="13.50" from="4006688#0" to="-10425128#0"/>
    <trip id="10" depart="15.00" from="4006684" to="32270592#0"/>
    <trip id="11" depart="16.50" from="-4006705#1" to="-31241853#0"/>
    <trip id="12" depart="18.00" from="5445204#2" to="-4006693#4"/>
    <trip id="13" depart="19.50" from="-29900567" to="-29900565#0"/>
    <trip id="14" depart="21.00" from="4006702#1" to="30350450#2"/>
    <trip id="15" depart="22.50" from="4006687" to="35842306#0"/>
    <trip id="16" depart="24.00" from="28613727#1" to="8402998#3"/>
    <trip id="17" depart="25.50" from="-4690348" to="29900564#0"/>
    <trip id="18" depart="27.00" from="4006693#0" to="31241816#0"/>
    <trip id="19" depart="28.50" from="4006705#2" to="3013106#0"/>
    <trip id="20" depart="30.00" from="32271499" to="-23605600#0"/>
    <trip id="21" depart="31.50" from="-3998612#1" to="-4006674#2"/>
    <trip id="22" depart="33.00" from="-29900564#5" to="-35842306#0"/>
    <trip id="23" depart="34.50" from="-3013107" to="-3998645#2"/>
    <trip id="24" depart="36.00" from="31241835#1" to="-4006725#0"/>
    <trip id="25" depart="37.50" from="-4099270#1" to="-32282774"/>
    <trip id="26" depart="39.00" from="-4006668" to="4872369"/>
    <trip id="27" depart="40.50" from="31241851#2" to="30405356"/>
    <trip id="28" depart="42.00" from="-31401018" to="35842306#0"/>
    <trip id="29" depart="43.50" from="-31401017#0" to="-4047378"/>
    <trip id="30" depart="45.00" from="85355912" to="31241851#0"/>
    <trip id="31" depart="46.50" from="29900564#2" to="31720633"/>
    <trip id="32" depart="48.00" from="4006694" to="3998645#2"/>
    <trip id="33" depart="49.50" from="-3998612#1" to="-23350930"/>
    <trip id="34" depart="51.00" from="-4006693#0" to="-3998643#1"/>
    <trip id="35" depart="52.50" from="-33174302#0" to="4900739#1"/>
    <trip id="36" depart="54.00" from="4006726#0" to="-4006688#2"/>
    <trip id="37" depart="55.50" from="31241853#2" to="-4872369"/>
    <trip id="39" depart="58.50" from="-3998653" to="-3998612#2"/>
    <trip id="40" depart="60.00" from="29900564#4" to="-3998615#3"/>
    <trip id="41" depart="61.50" from="3013107" to="4099270#0"/>
    <trip id="42" depart="63.00" from="-5558" to="-32302591#3"/>
    <trip id="43" depart="64.50" from="94344941" to="25398494#0"/>
    <trip id="44" depart="66.00" from="-29900567" to="-23605600#1"/>
    <trip id="45" depart="67.50" from="-31241816#0" to="31241834#1"/>
    <trip id="46" depart="69.00" from="4006674#2" to="-8402998#0"/>
    <trip id="47" depart="70.50" from="-29900561#0" to="-4047532"/>
    <trip id="48" depart="72.00" from="94344941" to="28269598"/>
    <trip id="49" depart="73.50" from="8402998#1" to="4006705#1"/>
    <trip id="50" depart="75.00" from="-10425131" to="32302591#5"/>
    <trip id="51" depart="76.50" from="31401017#2" to="28613727#1"/>
    <trip id="52" depart="78.00" from="-4006668" to="31241851#1"/>
    <trip id="53" depart="79.50" from="-31241816#1" to="-8403007"/>
    <trip id="54" depart="81.00" from="113939242#2" to="5445204#3"/>
    <trip id="55" depart="82.50" from="4006726#0" to="-3998615#3"/>
    <trip id="56" depart="84.00" from="23605600#1" to="-31401017#0"/>
    <trip id="57" depart="85.50" from="4319352#1" to="4006725#1"/>
    <trip id="58" depart="87.00" from="-4006688#0" to="31241851#0"/>
    <trip id="59" depart="88.50" from="30405356" to="-31241851#2"/>
    <trip id="60" depart="90.00" from="3998615#3" to="28613737"/>
    <trip id="61" depart="91.50" from="4006668" to="28269598"/>
    <trip id="62" depart="93.00" from="-10419402" to="-4006691"/>
    <trip id="63" depart="94.50" from="-10712013" to="4690348"/>
    <trip id="64" depart="96.00" from="4006726#1" to="4006691"/>
    <trip id="65" depart="97.50" from="-4006688#3" to="-25210699"/>
    <trip id="66" depart="99.00" from="4006726#1" to="4900741"/>
    <trip id="67" depart="100.50" from="-29900565#2" to="126606716"/>
    <trip id="68" depart="102.00" from="-29900564#1" to="3998615#3"/>
    <trip id="69" depart="103.50" from="3998643#1" to="-31241816#3"/>
    <trip id="70" depart="105.00" from="19796637" to="29900561#1"/>
    <trip id="71" depart="106.50" from="-3998653" to="4006725#1"/>
    <trip id="72" depart="108.00" from="-94344940#2" to="-32302591#0"/>
    <trip id="73" depart="109.50" from="28613734" to="35842306#0"/>
    <trip id="74" depart="111.00" from="-32302591#3" to="-4006688#1"/>
    <trip id="75" depart="112.50" from="94344941" to="31241853#2"/>
    <trip id="76" depart="114.00" from="10425130" to="25472129"/>
    <trip id="77" depart="115.50" from="-31241835#1" to="-32302591#5"/>
    <trip id="78" depart="117.00" from="-4006703#1" to="3013109"/>
    <trip id="79" depart="118.50" from="-3998612#2" to="-32302591#4"/>
    <trip id="80" depart="120.00" from="-29900564#2" to="31241838#0"/>
    <trip id="81" depart="121.50" from="-3998612#1" to="41973977"/>
    <trip id="82" depart="123.00" from="4006705#1" to="-28613727#1"/>
    <trip id="83" depart="124.50" from="-3998613#2" to="31353573#1"/>
    <trip id="84" depart="126.00" from="-33174302#1" to="-31241834#1"/>
    <trip id="85" depart="127.50" from="4797872" to="29900565#2"/>
    <trip id="86" depart="129.00" from="15259223" to="4006672"/>
    <trip id="87" depart="130.50" from="4006687" to="-31720632#0"/>
    <trip id="88" depart="132.00" from="-3013106#1" to="-8403001"/>
    <trip id="89" depart="133.50" from="-94344940#2" to="113939242#1"/>
    <trip id="90" depart="135.00" from="33174302#1" to="31401017#1"/>
    <trip id="91" depart="136.50" from="85355911#0" to="-29900565#1"/>
    <trip id="92" depart="138.00" from="-67076129" to="-4006702#0"/>
    <trip id="93" depart="139.50" from="4006705#2" to="-3998613#0"/>
    <trip id="94" depart="141.00" from="-32270593" to="10425128#1"/>
    <trip id="95" depart="142.50" from="-94344940#0" to="-3998645#2"/>
    <trip id="96" depart="144.00" from="-3998643#0" to="44069041#1"/>
    <trip id="97" depart="145.50" from="10573414#1" to="4006705#1"/>
    <trip id="98" depart="147.00" from="29900564#0" to="-23605600#2"/>
    <trip id="99" depart="148.50" from="9643180" to="4006693#0"/>
    <trip id="100" depart="150.00" from="8402998#0" to="4686970#0"/>
    <trip id="101" depart="151.50" from="4006702#2" to="-31255203#0"/>
    <trip id="102" depart="153.00" from="23350930" to="-32302591#1"/>
    <trip id="103" depart="154.50" from="-67076129" to="-25210699"/>
    <trip id="104" depart="156.00" from="-4872369" to="85355911#1"/>
    <trip id="105" depart="157.50" from="-3998653" to="4006672"/>
    <trip id="106" depart="159.00" from="113939244#0" to="-8402998#1"/>
    <trip id="107" depart="160.50" from="5445204#2" to="94344941"/>
    <trip id="108" depart="162.00" from="29900564#2" to="32302591#4"/>
    <trip id="109" depart="163.50" from="-31270441" to="-4006675"/>
    <trip id="110" depart="165.00" from="8402998#0" to="3013106#0"/>
    <trip id="111" depart="166.50" from="28613737" to="3998613#0"/>
    <trip id="112" depart="168.00" from="-28613737" to="3013106#2"/>
    <trip id="113" depart="169.50" from="23605600#2" to="4006702#0"/>
    <trip id="114" depart="171.00" from="-31353573#0" to="67076129"/>
    <trip id="115" depart="172.50" from="-29900564#5" to="-31401018"/>
    <trip id="116" depart="174.00" from="30350449" to="31401017#2"/>
    <trip id="117" depart="175.50" from="-3998613#1" to="-30357194"/>
    <trip id="118" depart="177.00" from="4047378" to="-3998612#2"/>
    <trip id="119" depart="178.50" from="30350449" to="31241816#1"/>
    <trip id="120" depart="180.00" from="-8403007" to="3013106#2"/>
    <trip id="121" depart="181.50" from="25472134" to="4797872"/>
    <trip id="122" depart="183.00" from="-32302591#4" to="32302591#3"/>
    <trip id="123" depart="184.50" from="-3998613#2" to="-4872369"/>
    <trip id="124" depart="186.00" from="31353573#0" to="-4006682"/>
    <trip id="125" depart="187.50" from="-4006693#0" to="3998613#2"/>
    <trip id="126" depart="189.00" from="-29900564#2" to="10712011"/>
    <trip id="127" depart="190.50" from="9643180" to="94344941"/>
    <trip id="128" depart="192.00" from="-29900564#2" to="-32302591#1"/>
    <trip id="129" depart="193.50" from="-3998653" to="4797871"/>
    <trip id="130" depart="195.00" from="4006726#2" to="4006726#2"/>
    <trip id="131" depart="196.50" from="-4099270#1" to="-31241853#1"/>
    <trip id="132" depart="198.00" from="4006693#2" to="32270593"/>
    <trip id="133" depart="199.50" from="30405358#0" to="85355912"/>
    <trip id="134" depart="201.00" from="31241853#1" to="-10425128#1"/>
    <trip id="135" depart="202.50" from="4006688#3" to="-4006682"/>
    <trip id="136" depart="204.00" from="31255203#0" to="4900043"/>
    <trip id="137" depart="205.50" from="-31241851#1" to="-3013107"/>
    <trip id="138" depart="207.00" from="-30357194" to="29900564#1"/>
    <trip id="139" depart="208.50" from="-4006674#0" to="30357194"/>
    <trip id="140" depart="210.00" from="32302591#3" to="-32270595"/>
    <trip id="141" depart="211.50" from="31241835#1" to="-3998615#3"/>
    <trip id="142" depart="213.00" from="23360299" to="41973977"/>
    <trip id="143" depart="214.50" from="4006702#1" to="-29900564#4"/>
    <trip id="144" depart="216.00" from="-94344940#2" to="-3998645#2"/>
    <trip id="145" depart="217.50" from="-10425128#0" to="3998645#0"/>
    <trip id="146" depart="219.00" from="31241838#0" to="-3998615#3"/>
    <trip id="147" depart="220.50" from="3998612#1" to="29900564#0"/>
    <trip id="148" depart="222.00" from="-94344940#3" to="-10425128#1"/>
    <trip id="149" depart="223.50" from="-29900564#3" to="4047241"/>
    <trip id="150" depart="225.00" from="4099309" to="29900561#0"/>
    <trip id="151" depart="226.50" from="4006693#2" to="3013106#2"/>
    <trip id="152" depart="228.00" from="-31255203#0" to="-31241816#3"/>
    <trip id="153" depart="229.50" from="-4006688#4" to="4099270#0"/>
    <trip id="154" depart="231.00" from="4006674#4" to="4006705#1"/>
    <trip id="155" depart="232.50" from="4047532" to="-32282774"/>
    <trip id="156" depart="234.00" from="-3998643#0" to="-29900565#3"/>
    <trip id="157" depart="235.50" from="4006672" to="4047241"/>
    <trip id="158" depart="237.00" from="-8402998#0" to="31241816#1"/>
    <trip id="159" depart="238.50" from="-31270441" to="4690348"/>
    <trip id="160" depart="240.00" from="4006724#0" to="8403001"/>
    <trip id="161" depart="241.50" from="4006688#0" to="4006740"/>
    <trip id="162" depart="243.00" from="-23341293" to="39539626"/>
    <trip id="163" depart="244.50" from="-4006702#0" to="4690348"/>
    <trip id="164" depart="246.00" from="4006683" to="4006705#2"/>
    <trip id="165" depart="247.50" from="4006688#0" to="-3998643#1"/>
    <trip id="166" depart="249.00" from="4006674#1" to="-3013106#0"/>
    <trip id="167" depart="250.50" from="4006725#0" to="4006703#1"/>
    <trip id="168" depart="252.00" from="-37591481" to="4006688#0"/>
    <trip id="169" depart="253.50" from="113939244#2" to="-4006684"/>
    <trip id="170" depart="255.00" from="4006674#4" to="-33174302#0"/>
    <trip id="171" depart="256.50" from="-126606716" to="-31777493#0"/>
    <trip id="172" depart="258.00" from="-4006701" to="4006705#2"/>
    <trip id="173" depart="259.50" from="8402997" to="-4006668"/>
    <trip id="174" depart="261.00" from="31241848" to="-4900739#0"/>
    <trip id="175" depart="262.50" from="8403007" to="28613727#1"/>
    <trip id="176" depart="264.00" from="4900043" to="-3013107"/>
    <trip id="177" depart="265.50" from="8402998#0" to="-31401017#0"/>
    <trip id="178" depart="267.00" from="5931612" to="-3998643#0"/>
    <trip id="179" depart="268.50" from="-31241816#0" to="-8403007"/>
    <trip id="180" depart="270.00" from="33174302#0" to="-4006688#2"/>
    <trip id="181" depart="271.50" from="30357194" to="25472079"/>
    <trip id="182" depart="273.00" from="-4900739#1" to="29900567"/>
    <trip id="183" depart="274.50" from="-3998643#2" to="32302591#0"/>
    <trip id="184" depart="276.00" from="-10419402" to="4686970#0"/>
    <trip id="185" depart="277.50" from="28613734" to="32302591#5"/>
    <trip id="186" depart="279.00" from="3998612#1" to="31401017#0"/>
    <trip id="187" depart="280.50" from="-4047378" to="-28613727#1"/>
    <trip id="188" depart="282.00" from="31255203#0" to="-4006693#2"/>
    <trip id="189" depart="283.50" from="-4006691" to="4006694"/>
    <trip id="190" depart="285.00" from="32302591#4" to="-4006682"/>
    <trip id="191" depart="286.50" from="-4006688#4" to="-54105725"/>
    <trip id="192" depart="288.00" from="-67076129" to="-4006674#4"/>
    <trip id="193" depart="289.50" from="-31241848" to="-8402997"/>
    <trip id="194" depart="291.00" from="4900043" to="31401018"/>
    <trip id="195" depart="292.50" from="4099309" to="30751813"/>
    <trip id="196" depart="294.00" from="-4006688#1" to="29900561#1"/>
    <trip id="197" depart="295.50" from="-10419402" to="-4006674#1"/>
    <trip id="198" depart="297.00" from="-9643180" to="3013106#1"/>
    <trip id="199" depart="298.50" from="31241853#1" to="113939242#0"/>
</routes>
